---- qbsp / TyrUtils v0.17 ----
Input file: heavywater-compile.map
Output file: heavywater.bsp

---- LoadMapFile ----
*** WARNING 06: No info_player_deathmatch entities in level
        11120 faces
         1353 brushes
           87 entities
           31 unique texnames
         1612 texinfo

Opened WAD: /Users/nre_kique/Desktop/heavyWater/quakeDev/wad/START.WAD
Opened WAD: /Users/nre_kique/Desktop/heavyWater/quakeDev/wad/heavywater-makkon.wad
Opened WAD: /Users/nre_kique/Desktop/heavyWater/quakeDev/wad/rj7_koohoo-defullbright.wad
Processing hull 0...
---- Brush_LoadEntity ----
*** WARNING 22: Healing degenerate edge (0.000058) at (-667.165 1653.156 44.470)
*** WARNING 22: Healing degenerate edge (0.000095) at (1618.762 493.221 167.382)
*** WARNING 22: Healing degenerate edge (0.000099) at (1645.621 335.136 217.953)
*** WARNING 22: Healing degenerate edge (0.000054) at (1715.220 311.044 167.371)
*** WARNING 22: Healing degenerate edge (0.000078) at (1657.164 26.887 213.906)
*** WARNING 22: Healing degenerate edge (0.000061) at (1713.704 136.940 336.000)
*** WARNING 22: Healing degenerate edge (0.000043) at (1726.887 80.597 251.575)
*** WARNING 22: Healing degenerate edge (0.000072) at (1702.182 97.181 187.360)
*** WARNING 22: Healing degenerate edge (0.000048) at (1628.669 -73.884 211.569)
*** WARNING 22: Healing degenerate edge (0.000067) at (1609.813 -4.651 187.842)
*** WARNING 22: Healing degenerate edge (0.000097) at (1642.119 -82.610 274.859)
*** WARNING 22: Healing degenerate edge (0.000048) at (1634.669 -10.884 140.569)
         1353 brushes
---- CSGFaces ----
        11120 brushfaces
        16340 csgfaces
        12178 mergedfaces
---- SolidBSP ----
        27325 split nodes
         8286 solid leafs
        19007 empty leafs
           33 water leafs
        50703 leaffaces
        47628 nodefaces
---- Portalize ----
*** WARNING 12: New portal was clipped away in CutNodePortals_r
*** WARNING 12: New portal was clipped away in CutNodePortals_r
*** WARNING 12: New portal was clipped away in CutNodePortals_r
*** WARNING 12: New portal was clipped away in CutNodePortals_r
*** WARNING 12: New portal was clipped away in CutNodePortals_r
*** WARNING 12: New portal was clipped away in CutNodePortals_r
*** WARNING 12: New portal was clipped away in CutNodePortals_r
*** WARNING 12: New portal was clipped away in CutNodePortals_r
*** WARNING 12: New portal was clipped away in CutNodePortals_r
*** WARNING 12: New portal was clipped away in CutNodePortals_r
*** WARNING 12: New portal was clipped away in CutNodePortals_r
*** WARNING 12: New portal was clipped away in CutNodePortals_r
*** WARNING 12: New portal was clipped away in CutNodePortals_r
        19040 vis leafs
        19040 vis clusters
        73811 vis portals
---- FillOutside ----
*** WARNING 10: Reached occupant at (-848 96 76), no filling performed.
Leak file written to heavywater.pts
---- MakeFaceEdges ----
---- GrowRegions ----
Processing hull 1...
*** WARNING 22: Healing degenerate edge (0.000058) at (-667.165 1653.156 44.470)
*** WARNING 22: Healing degenerate edge (0.000052) at (1610.513 524.296 269.199)
*** WARNING 22: Healing degenerate edge (0.000095) at (1618.762 493.221 167.382)
*** WARNING 22: Healing degenerate edge (0.000095) at (1602.762 477.221 191.382)
************ ERROR ************
CheckFace: Found a non-convex face (error size 1.825060)

