---- qbsp / TyrUtils v0.17 ----
Input file: heavywater-compile.map
Output file: heavywater.bsp

---- LoadMapFile ----
*** WARNING 06: No info_player_deathmatch entities in level
        11150 faces
         1358 brushes
           87 entities
           32 unique texnames
         1617 texinfo

Opened WAD: /Users/nre_kique/Desktop/heavyWater/quakeDev/wad/START.WAD
Opened WAD: /Users/nre_kique/Desktop/heavyWater/quakeDev/wad/heavywater-makkon.wad
Opened WAD: /Users/nre_kique/Desktop/heavyWater/quakeDev/wad/rj7_koohoo-defullbright.wad
Processing hull 0...
---- Brush_LoadEntity ----
*** WARNING 22: Healing degenerate edge (0.000058) at (-667.165 1653.156 44.470)
*** WARNING 22: Healing degenerate edge (0.000048) at (1628.669 -73.884 211.569)
*** WARNING 22: Healing degenerate edge (0.000067) at (1609.813 -4.651 187.842)
*** WARNING 22: Healing degenerate edge (0.000097) at (1642.119 -82.610 274.859)
*** WARNING 22: Healing degenerate edge (0.000048) at (1634.669 -10.884 140.569)
*** WARNING 22: Healing degenerate edge (0.000078) at (1657.164 26.887 213.906)
*** WARNING 22: Healing degenerate edge (0.000061) at (1713.704 136.940 336.000)
*** WARNING 22: Healing degenerate edge (0.000043) at (1726.887 80.597 251.575)
*** WARNING 22: Healing degenerate edge (0.000072) at (1702.182 97.181 187.360)
*** WARNING 22: Healing degenerate edge (0.000054) at (1715.220 311.044 167.371)
*** WARNING 22: Healing degenerate edge (0.000095) at (1618.762 493.221 167.382)
*** WARNING 22: Healing degenerate edge (0.000099) at (1645.621 335.136 217.953)
         1358 brushes
---- CSGFaces ----
        11150 brushfaces
        16469 csgfaces
        12353 mergedfaces
---- SolidBSP ----
        27511 split nodes
         8026 solid leafs
        18898 empty leafs
          588 water leafs
        53215 leaffaces
        49653 nodefaces
---- Portalize ----
*** WARNING 12: New portal was clipped away in CutNodePortals_r
*** WARNING 12: New portal was clipped away in CutNodePortals_r
*** WARNING 12: New portal was clipped away in CutNodePortals_r
*** WARNING 12: New portal was clipped away in CutNodePortals_r
*** WARNING 12: New portal was clipped away in CutNodePortals_r
*** WARNING 12: New portal was clipped away in CutNodePortals_r
*** WARNING 12: New portal was clipped away in CutNodePortals_r
*** WARNING 12: New portal was clipped away in CutNodePortals_r
*** WARNING 12: New portal was clipped away in CutNodePortals_r
*** WARNING 12: New portal was clipped away in CutNodePortals_r
*** WARNING 12: New portal was clipped away in CutNodePortals_r
        19486 vis leafs
        19486 vis clusters
        75039 vis portals
---- FillOutside ----
*** WARNING 10: Reached occupant at (-1104 1936 120), no filling performed.
Leak file written to heavywater.pts
---- MakeFaceEdges ----
---- GrowRegions ----
Processing hull 1...
*** WARNING 22: Healing degenerate edge (0.000058) at (-667.165 1653.156 44.470)
*** WARNING 22: Healing degenerate edge (0.000060) at (1661.048 -134.350 123.724)
*** WARNING 22: Healing degenerate edge (0.000081) at (1628.095 -158.067 153.289)
*** WARNING 22: Healing degenerate edge (0.000048) at (1628.669 -73.884 211.569)
*** WARNING 22: Healing degenerate edge (0.000061) at (1606.722 -79.659 257.799)
*** WARNING 22: Healing degenerate edge (0.000087) at (1696.703 -83.566 209.708)
*** WARNING 22: Healing degenerate edge (0.000067) at (1609.813 -4.651 187.842)
*** WARNING 22: Healing degenerate edge (0.000097) at (1635.957 -32.383 248.282)
*** WARNING 22: Healing degenerate edge (0.000097) at (1642.119 -82.610 274.859)
*** WARNING 22: Healing degenerate edge (0.000048) at (1634.669 -10.884 140.569)
*** WARNING 22: Healing degenerate edge (0.000059) at (1675.114 78.495 330.347)
*** WARNING 22: Healing degenerate edge (0.000051) at (1677.054 95.347 212.436)
*** WARNING 22: Healing degenerate edge (0.000078) at (1657.164 26.887 213.906)
*** WARNING 22: Healing degenerate edge (0.000082) at (1641.164 10.887 181.906)
*** WARNING 22: Healing degenerate edge (0.000066) at (1644.690 50.067 176.737)
*** WARNING 22: Healing degenerate edge (0.000061) at (1713.704 136.940 336.000)
*** WARNING 22: Healing degenerate edge (0.000043) at (1726.887 80.597 251.575)
*** WARNING 22: Healing degenerate edge (0.000072) at (1702.182 97.181 187.360)
*** WARNING 22: Healing degenerate edge (0.000072) at (1686.182 81.181 211.360)
*** WARNING 22: Healing degenerate edge (0.000061) at (1719.505 114.734 130.619)
*** WARNING 22: Healing degenerate edge (0.000025) at (1632.054 180.625 277.666)
*** WARNING 22: Healing degenerate edge (0.000054) at (1715.220 311.044 167.371)
*** WARNING 22: Healing degenerate edge (0.000088) at (1633.243 272.962 339.000)
*** WARNING 22: Healing degenerate edge (0.000065) at (1626.825 242.012 158.622)
*** WARNING 22: Healing degenerate edge (0.000100) at (1639.341 290.169 271.532)
*** WARNING 22: Healing degenerate edge (0.000050) at (1677.609 255.396 265.655)
*** WARNING 22: Healing degenerate edge (0.000060) at (1677.609 255.396 265.655)
*** WARNING 22: Healing degenerate edge (0.000052) at (1610.513 524.296 269.199)
*** WARNING 22: Healing degenerate edge (0.000095) at (1618.762 493.221 167.382)
*** WARNING 22: Healing degenerate edge (0.000095) at (1602.762 477.221 191.382)
************ ERROR ************
CheckFace: Found a non-convex face (error size 1.825060)

